Circuit: * C:\Users\Ignazio\Desktop\coding\project_arduino\voltmetro & ohmetro\Draft1.asc

Direct Newton iteration for .op point succeeded.

Date: Wed Feb 14 16:07:35 2024
Total elapsed time: 0.165 seconds.

tnom = 27
temp = 27
method = modified trap
totiter = 29635
traniter = 29619
tranpoints = 8932
accept = 6981
rejected = 1951
matrix size = 12
fillins = 5
solver = Normal
Matrix Compiler1: 864 bytes object code size  0.1/0.1/[0.1]
Matrix Compiler2: off  [0.1]/0.1/0.1

